#EXTM3U
#EXT-X-VERSION:3
#EXT-X-STREAM-INF:PROGRAM-ID=1,BANDWIDTH=2560000
https://manifest.googlevideo.com/api/manifest/hls_playlist/expire/1651770969/ei/-bFzYsepEs_Bhwb6tIW4Dw/ip/40.71.121.45/id/uJpiMc1QaxA.1/itag/96/source/yt_live_broadcast/requiressl/yes/ratebypass/yes/live/1/sgoap/gir%3Dyes%3Bitag%3D140/sgovp/gir%3Dyes%3Bitag%3D137/hls_chunk_host/rr2---sn-p5qlsndk.googlevideo.com/playlist_duration/30/manifest_duration/30/spc/4ocVC8mdaCFX-5bNMBdbsuP9-V9E/vprv/1/playlist_type/DVR/mh/3G/mm/44/mn/sn-p5qlsndk/ms/lva/mv/u/mvi/2/pl/19/dover/11/pacing/0/keepalive/yes/fexp/24001373,24007246/mt/1651748311/sparams/expire,ei,ip,id,itag,source,requiressl,ratebypass,live,sgoap,sgovp,playlist_duration,manifest_duration,spc,vprv,playlist_type/sig/AOq0QJ8wRAIgLbVAXKQm-kGwdPx5QFMiAayQbZ8FKQZqQ91Wdj-hQnoCIEPra8RCl9qHH_bj7Wx7gsgIgt0ievoEMos80cggDmRC/lsparams/hls_chunk_host,mh,mm,mn,ms,mv,mvi,pl/lsig/AG3C_xAwRQIgJxOw4pKJf1NycDU0hndUjRA8b5yNa70r1Z_jKfmJXI8CIQD39nUikXuH-Jw9vB9PeaLJhjoW5Z8gl5Ro0qLFdjgngw%3D%3D/playlist/index.m3u8
